LAMMPS (23 Jun 2022)
units metal
dimension 3
atom_style atomic
boundary p p p
read_data data.lammps
Reading data file ...
  orthogonal box = (0 0 0) to (16.331106 16.331106 16.331106)
  reading atoms ...
  216 atoms
pair_style tersoff
pair_coeff * * Si.tersoff Si
Reading tersoff potential file Si.tersoff with DATE: 2007-10-25
mass * 28
thermo 10
run 100
  update every 1 steps, delay 10 steps, check yes
Step          Temp          E_pair         E_mol          TotEng         Press
0   0             -1000.1069      0             -1000.1069     -6622.3887
Loop time of 0.0439561 on 1 procs for 100 steps with 216 atoms

thermo 1000
fix 1 all nve
fix 2 all langevin 0 298 0.1 123456
timestep 0.005
run 100000
Step          Temp          E_pair         E_mol          TotEng         Press
100   0             -1000.1069      0             -1000.1069     -6622.3887
Averages over the last 51 of 102 rows, steps 51000 to 100100:
Temp E_pair E_mol TotEng Press
227.037 -993.441 0 -987.132 -7419.9
Loop time of 37.3155 on 1 procs for 100000 steps with 216 atoms

dump 3 all atom 500 dump.Si
run 100000
Step          Temp          E_pair         E_mol          TotEng         Press
100100   330.15562     -992.0917       0             -982.91637     -7160.579
Averages over the last 51 of 102 rows, steps 151000 to 200100:
Temp E_pair E_mol TotEng Press
230.553 -993.486 0 -987.078 -7526.75
Loop time of 37.6508 on 1 procs for 100000 steps with 216 atoms
